go athena
init infile=./structures/$"length"/beforeEtch.str
set length = 0.7
electrode name=gate x=0.5 y=0.1
electrode name=drain x=0.1
electrode name=source x=($length + .7)
electrode name=substrate backside

# plot the structure
#tonyplot ./structures/mos1ex01_0.str -set mos1ex01_0.set

############# Vt Test : Returns Vt, Beta and Theta ################
go atlas simflags="-P 1"
OUTPUT CON.BAND

# set material models
models cvt srh print  
contact name=gate n.poly
interface qf=3e10


# get initial solution
 
solve init

method  newton trap 
solve prev

set vdd = 2
set vg_step = 0.05

# Bias the drain a bit...
solve vdrain=0.025 vstep=0.025 vfinal=0.1 name=drain
structure outfile=./structures/$"length"/electrical_lowvdd_gate_off.str
# Ramp the gate
log outf=./logs/low_vdd_length_$"length".log master
solve vgate=0 vstep=$"vg_step" vdrain=0.1 vfinal=$"vdd" name=gate cname=drain
structure outfile=./structures/$"length"/electrical_lowvdd_gate_on.str

# extract device parameters
extract name="vt1" (xintercept(maxslope(curve(abs(v."gate"),abs(i."drain")))) \
        - abs(ave(v."drain"))/2.0)

extract name="id_1v" y.val from curve(abs(v."gate"), abs(i."drain")) where x.val=1
extract name="id_1.5v" y.val from curve(abs(v."gate"), abs(i."drain")) where x.val=1.5
extract name="id_2v" y.val from curve(abs(v."gate"), abs(i."drain")) where x.val=2

# now open a dummy log file...
log off


quit
